MODEL         1
ROOT
ATOM      1  C   LIG    1        2.359   8.373 -26.268 -0.42 +0.02    +0.110 C
ATOM      2  C   LIG    1        2.646   7.652 -27.635 -0.37 +0.01    +0.030 C
ATOM      3  C   LIG    1        1.393   7.874 -28.480 -0.36 +0.00    +0.010 C
ATOM      4  C   LIG    1        1.006   6.741 -29.462 -0.35 +0.01    +0.050 C
ATOM      5  C   LIG    1       -0.417   6.293 -28.917 -0.38 +0.00    +0.040 C
ATOM      6  C   LIG    1       -0.247   4.797 -28.583 -0.37 +0.00    +0.030 C
ATOM      7  C   LIG    1        1.307   4.722 -28.210 -0.42 +0.00    +0.010 C
ATOM      8  C   LIG    1        1.284   3.206 -27.946 -0.56 -0.00    -0.010 C
ATOM      9  C   LIG    1        0.950   2.733 -29.381 -0.66 +0.01    +0.090 C
ATOM     10  O   LIG    1        1.961   3.033 -30.277 -0.62 -0.01    -0.340 OA
ATOM     11  C   LIG    1        1.895   4.477 -30.681 -0.39 +0.03    +0.320 C
ATOM     12  O   LIG    1        3.023   5.198 -30.116 -0.35 -0.05    -0.300 OA
ATOM     13  C   LIG    1       -0.026   1.623 -29.172 -0.64 +0.01    +0.070 C
ATOM     14  C   LIG    1       -0.997   2.297 -28.143 -0.62 +0.00    +0.040 C
ATOM     15  C   LIG    1       -0.108   3.050 -27.108 -0.48 +0.01    +0.090 C
ATOM     16  C   LIG    1       -0.429   4.532 -27.031 -0.34 -0.00    -0.060 C
ATOM     17  C   LIG    1       -0.949   5.792 -26.452 -0.35 +0.00    +0.110 C
ATOM     18  O   LIG    1       -1.815   6.185 -25.454 -0.36 -0.01    -0.270 OA
ATOM     19  C   LIG    1       -0.439   6.208 -25.001 -0.29 -0.02    +0.290 C
ATOM     20  O   LIG    1        0.150   7.562 -24.996 -0.84 -0.03    -0.330 OA
ATOM     21  C   LIG    1       -0.238   6.680 -27.456 -0.37 -0.01    -0.060 C
ATOM     22  C   LIG    1        1.829   5.425 -29.432 -0.48 +0.00    +0.030 C
ATOM     23  C   LIG    1        0.216   8.120 -27.419 -0.42 +0.01    +0.050 C
ATOM     24  C   LIG    1        0.935   7.968 -26.032 -0.49 +0.00    +0.030 C
ENDROOT
TORSDOF 0
TER
ENDMDL
